EPUB Fix Log
==================================================

Input file: [樱庭一树].我的男人.epub
Output file: fixed_[樱庭一树].我的男人.epub

Fixes applied:
1. Fixed malformed XML in fb.opf guide section (removed invalid characters from title)
2. Removed invalid font-face declaration with non-existent resource URIs
